!-Generator IDFEditor 1.44
!-Option SortedOrder
!-NOTE: All comments with '!-' are ignored by the IDFEditor and are generated automatically.
!-      Use '!' comments if they need to be retained when using the IDFEditor.
!1+5+3+6+8
!-   ===========  ALL OBJECTS IN CLASS: VERSION ===========
! *** EVALUATION SOFTWARE GENERATES COMPRESSED IDF - TO OBTAIN READABLE IDF PLEASE PURCHASE A LICENCE ***
! File generated by DesignBuilder - 4.7.0.027 25/07/2017 - 15:14:38
! Original file URL: https://github.com/zhangzhizza/HVAC-RL-Control/blob/a3c/src/eplus-env/eplus_env/envs/eplus_models/iw_v96/learning/idf/tmy3Weather.idf

  Version,9.5;

!-   ===========  ALL OBJECTS IN CLASS: SIMULATIONCONTROL ===========

  SimulationControl,
    No,                      !- Do Zone Sizing Calculation
    No,                      !- Do System Sizing Calculation
    No,                      !- Do Plant Sizing Calculation
    No,                      !- Run Simulation for Sizing Periods
    Yes,                     !- Run Simulation for Weather File Run Periods
    No,                      !- Do HVAC Sizing Simulation for Sizing Periods
    1;                       !- Maximum Number of HVAC Sizing Simulation Passes

!-   ===========  ALL OBJECTS IN CLASS: BUILDING ===========

  Building,
    Building,                !- Name
    15,                      !- North Axis {deg}
    Suburbs,                 !- Terrain
    0.04,                    !- Loads Convergence Tolerance Value {W}
    0.4,                     !- Temperature Convergence Tolerance Value {deltaC}
    FullExterior,            !- Solar Distribution
    25,                      !- Maximum Number of Warmup Days
    6;                       !- Minimum Number of Warmup Days

!-   ===========  ALL OBJECTS IN CLASS: SHADOWCALCULATION ===========

  ShadowCalculation,
    PolygonClipping,         !- Shading Calculation Method
    Periodic,                !- Shading Calculation Update Frequency Method
    20,                      !- Shading Calculation Update Frequency
    15000,                   !- Maximum Figures in Shadow Overlap Calculations
    SutherlandHodgman,       !- Polygon Clipping Algorithm
    ;                        !- Pixel Counting Resolution

!-   ===========  ALL OBJECTS IN CLASS: SURFACECONVECTIONALGORITHM:INSIDE ===========

  SurfaceConvectionAlgorithm:Inside,TARP;

!-   ===========  ALL OBJECTS IN CLASS: SURFACECONVECTIONALGORITHM:OUTSIDE ===========

  SurfaceConvectionAlgorithm:Outside,DOE-2;

!-   ===========  ALL OBJECTS IN CLASS: HEATBALANCEALGORITHM ===========

  HeatBalanceAlgorithm,ConductionTransferFunction,2000;

!-   ===========  ALL OBJECTS IN CLASS: ZONEAIRCONTAMINANTBALANCE ===========

  ZoneAirContaminantBalance,
    Yes,                     !- Carbon Dioxide Concentration
    outdoor_always400ppm,    !- Outdoor Carbon Dioxide Schedule Name
    No;                      !- Generic Contaminant Concentration

!-   ===========  ALL OBJECTS IN CLASS: ZONECAPACITANCEMULTIPLIER:RESEARCHSPECIAL ===========

  ZoneCapacitanceMultiplier:ResearchSpecial,
    Multiplier,              !- Name
    ,                        !- Zone or ZoneList Name
    1,                       !- Temperature Capacity Multiplier
    1.0,                     !- Humidity Capacity Multiplier
    1.0,                     !- Carbon Dioxide Capacity Multiplier
    1.0;                     !- Generic Contaminant Capacity Multiplier

!-   ===========  ALL OBJECTS IN CLASS: TIMESTEP ===========

  Timestep,12;

!-   ===========  ALL OBJECTS IN CLASS: CONVERGENCELIMITS ===========

  ConvergenceLimits,
    1,                       !- Minimum System Timestep {minutes}
    25;                      !- Maximum HVAC Iterations

!-   ===========  ALL OBJECTS IN CLASS: PROGRAMCONTROL ===========
!-   ===========  ALL OBJECTS IN CLASS: SITE:LOCATION ===========

  Site:Location,
    Pittsburgh PA USA,       !- Name
    40.36,                   !- Latitude {deg}
    -79.92,                  !- Longitude {deg}
    -5,                      !- Time Zone {hr}
    388;                     !- Elevation {m}

!-   ===========  ALL OBJECTS IN CLASS: SIZINGPERIOD:DESIGNDAY ===========

  SizingPeriod:DesignDay,
    Summer Design Day in Pittsburgh PA 99.6,  !- Name
    7,                       !- Month
    15,                      !- Day of Month
    SummerDesignDay,         !- Day Type
    32.2,                    !- Maximum Dry-Bulb Temperature {C}
    9.8,                     !- Daily Dry-Bulb Temperature Range {deltaC}
    ,                        !- Dry-Bulb Temperature Range Modifier Type
    ,                        !- Dry-Bulb Temperature Range Modifier Day Schedule Name
    WetBulb,                 !- Humidity Condition Type
    22.4,                    !- Wetbulb or DewPoint at Maximum Dry-Bulb {C}
    ,                        !- Humidity Condition Day Schedule Name
    ,                        !- Humidity Ratio at Maximum Dry-Bulb {kgWater/kgDryAir}
    ,                        !- Enthalpy at Maximum Dry-Bulb {J/kg}
    ,                        !- Daily Wet-Bulb Temperature Range {deltaC}
    96749.9,                 !- Barometric Pressure {Pa}
    0,                       !- Wind Speed {m/s}
    0,                       !- Wind Direction {deg}
    No,                      !- Rain Indicator
    No,                      !- Snow Indicator
    Yes,                     !- Daylight Saving Time Indicator
    ,                        !- Solar Model Indicator
    ,                        !- Beam Solar Day Schedule Name
    ,                        !- Diffuse Solar Day Schedule Name
    ,                        !- ASHRAE Clear Sky Optical Depth for Beam Irradiance (taub) {dimensionless}
    ,                        !- ASHRAE Clear Sky Optical Depth for Diffuse Irradiance (taud) {dimensionless}
    0.98;                    !- Sky Clearness

  SizingPeriod:DesignDay,
    Winter Design Day in Pittsburgh PA 99.6,  !- Name
    1,                       !- Month
    15,                      !- Day of Month
    WinterDesignDay,         !- Day Type
    -14.7,                   !- Maximum Dry-Bulb Temperature {C}
    0,                       !- Daily Dry-Bulb Temperature Range {deltaC}
    ,                        !- Dry-Bulb Temperature Range Modifier Type
    ,                        !- Dry-Bulb Temperature Range Modifier Day Schedule Name
    WetBulb,                 !- Humidity Condition Type
    -14.7,                   !- Wetbulb or DewPoint at Maximum Dry-Bulb {C}
    ,                        !- Humidity Condition Day Schedule Name
    ,                        !- Humidity Ratio at Maximum Dry-Bulb {kgWater/kgDryAir}
    ,                        !- Enthalpy at Maximum Dry-Bulb {J/kg}
    ,                        !- Daily Wet-Bulb Temperature Range {deltaC}
    96749.9,                 !- Barometric Pressure {Pa}
    11.2,                    !- Wind Speed {m/s}
    0,                       !- Wind Direction {deg}
    No,                      !- Rain Indicator
    No,                      !- Snow Indicator
    No,                      !- Daylight Saving Time Indicator
    ,                        !- Solar Model Indicator
    ,                        !- Beam Solar Day Schedule Name
    ,                        !- Diffuse Solar Day Schedule Name
    ,                        !- ASHRAE Clear Sky Optical Depth for Beam Irradiance (taub) {dimensionless}
    ,                        !- ASHRAE Clear Sky Optical Depth for Diffuse Irradiance (taud) {dimensionless}
    0;                       !- Sky Clearness

!-   ===========  ALL OBJECTS IN CLASS: RUNPERIOD ===========

  RunPeriod,
    wholeyear,               !- Name
    1,                       !- Begin Month
    1,                       !- Begin Day of Month
    1991,                        !- Begin Year
    3,                       !- End Month
    31,                      !- End Day of Month
    1991,                        !- End Year
    Sunday,                  !- Day of Week for Start Day
    No,                      !- Use Weather File Holidays and Special Days
    No,                      !- Use Weather File Daylight Saving Period
    Yes,                     !- Apply Weekend Holiday Rule
    Yes,                     !- Use Weather File Rain Indicators
    Yes,                     !- Use Weather File Snow Indicators
    ;                        !- Treat Weather as Actual

!-   ===========  ALL OBJECTS IN CLASS: RUNPERIODCONTROL:DAYLIGHTSAVINGTIME ===========
!RunPeriodControl:DaylightSavingTime,
!    2nd Sunday in March,     !- Start Date
!    1st Sunday in November;  !- End Date
!-   ===========  ALL OBJECTS IN CLASS: SITE:GROUNDTEMPERATURE:BUILDINGSURFACE ===========

  Site:GroundTemperature:BuildingSurface,18,18,18,18,18,18,18,18,18,18,18,18;

!-   ===========  ALL OBJECTS IN CLASS: SITE:GROUNDTEMPERATURE:FCFACTORMETHOD ===========

  Site:GroundTemperature:FCfactorMethod,2.10,1.21,2.79,5.27,11.76,16.77,20.14,21.17,19.42,15.53,10.34,5.52;

!-   ===========  ALL OBJECTS IN CLASS: SITE:GROUNDTEMPERATURE:SHALLOW ===========

  Site:GroundTemperature:Shallow,14,14,14,14,14,14,14,14,14,14,14,14;

!-   ===========  ALL OBJECTS IN CLASS: SITE:GROUNDTEMPERATURE:DEEP ===========

  Site:GroundTemperature:Deep,14,14,14,14,14,14,14,14,14,14,14,14;

!-   ===========  ALL OBJECTS IN CLASS: SITE:GROUNDREFLECTANCE ===========

  Site:GroundReflectance,0.2,0.2,0.2,0.2,0.2,0.2,0.2,0.2,0.2,0.2,0.2,0.2;

!-   ===========  ALL OBJECTS IN CLASS: SITE:GROUNDREFLECTANCE:SNOWMODIFIER ===========

  Site:GroundReflectance:SnowModifier,
    2.0,                     !- Ground Reflected Solar Modifier
    2.0;                     !- Daylighting Ground Reflected Solar Modifier

!-   ===========  ALL OBJECTS IN CLASS: SCHEDULETYPELIMITS ===========
! Not limited

  ScheduleTypeLimits,
    Any Number;              !- Name

  ScheduleTypeLimits,
    Fraction,                !- Name
    0.0,                     !- Lower Limit Value
    1.0,                     !- Upper Limit Value
    CONTINUOUS;              !- Numeric Type

  ScheduleTypeLimits,
    Temperature,             !- Name
    -60,                     !- Lower Limit Value
    200,                     !- Upper Limit Value
    CONTINUOUS;              !- Numeric Type

  ScheduleTypeLimits,
    Control Type,            !- Name
    0,                       !- Lower Limit Value
    4,                       !- Upper Limit Value
    DISCRETE;                !- Numeric Type

  ScheduleTypeLimits,
    On/Off,                  !- Name
    0,                       !- Lower Limit Value
    1,                       !- Upper Limit Value
    DISCRETE;                !- Numeric Type

!-   ===========  ALL OBJECTS IN CLASS: SCHEDULE:COMPACT ===========
! Name
! Type
! Type
! All days in year
! All hours in day

  Schedule:Compact,
    On,                      !- Name
    Any Number,              !- Schedule Type Limits Name
    Through: 12/31,          !- Field 1
    For: AllDays,            !- Field 2
    Until: 24:00,1;          !- Field 3

! Name
! Type
! Type
! All days in year
! All hours in day

  Schedule:Compact,
    Off,                     !- Name
    Any Number,              !- Schedule Type Limits Name
    Through: 12/31,          !- Field 1
    For: AllDays,            !- Field 2
    Until: 24:00,0;          !- Field 3

! Name
! Type
! Type
! All days in year
! All hours in day

  Schedule:Compact,
    Work efficiency,         !- Name
    Any Number,              !- Schedule Type Limits Name
    Through: 12/31,          !- Field 1
    For: AllDays,            !- Field 2
    Until: 24:00,0;          !- Field 3

  Schedule:Compact,
    Zone Comfort Control Type Sched,  !- Name
    Control Type,            !- Schedule Type Limits Name
    Through: 12/31,          !- Field 1
    For: AllDays,            !- Field 2
    Until: 24:00,4;          !- Field 3

  Schedule:Compact,
    AirVelocitySchedule,     !- Name
    Any Number,              !- Schedule Type Limits Name
    Through: 12/31,          !- Field 1
    For: AllDays,            !- Field 2
    Until: 24:00,.137;       !- Field 3

  Schedule:Compact,
    On 24/7,                 !- Name
    Any Number,              !- Schedule Type Limits Name
    Through: 12/31,          !- Field 1
    For: AllDays,            !- Field 2
    Until: 24:00,1;          !- Field 3

  Schedule:Compact,
    Infiltration_Mar_More,   !- Name
    Any Number,              !- Schedule Type Limits Name
    Through: 15 Jan,         !- Field 1
    For: AllDays,            !- Field 2
    Until: 24:00,1,          !- Field 3
    Through: 28 Feb,         !- Field 5
    For: AllDays,            !- Field 6
    Until: 24:00,1,          !- Field 7
    Through: 31 Mar,         !- Field 9
    For: AllDays,            !- Field 10
    Until: 24:00,1.0,        !- Field 11
    Through: 31 Dec,         !- Field 13
    For: AllDays,            !- Field 14
    Until: 24:00,1.0;        !- Field 15

  Schedule:Compact,
    Off 24/7,                !- Name
    Any Number,              !- Schedule Type Limits Name
    Through: 12/31,          !- Field 1
    For: AllDays,            !- Field 2
    Until: 24:00,0;          !- Field 3

  Schedule:Compact,
    Chilled water flow set point temperature: Always 6 C,  !- Name
    Any Number,              !- Schedule Type Limits Name
    Through: 12/31,          !- Field 1
    For: AllDays,            !- Field 2
    Until: 24:00,6;          !- Field 3

  Schedule:Compact,
    Hot Water flow set point temperature: Always 80.0 C,  !- Name
    Any Number,              !- Schedule Type Limits Name
    Through: 12/31,          !- Field 1
    For: AllDays,            !- Field 2
    Until: 24:00,80;         !- Field 3

  Schedule:Compact,
    Air loop cooling set point temperature: Always 14.0 C,  !- Name
    Any Number,              !- Schedule Type Limits Name
    Through: 12/31,          !- Field 1
    For: AllDays,            !- Field 2
    Until: 24:00,14;         !- Field 3

  Schedule:Compact,
    Heating set point schedule,  !- Name
    Any Number,              !- Schedule Type Limits Name
    Through: 12/31,          !- Field 1
    For: AllDays,            !- Field 2
    Until: 24:00,20;         !- Field 3

  Schedule:Compact,
    Cooling set point schedule,  !- Name
    Any Number,              !- Schedule Type Limits Name
    Through: 12/31,          !- Field 1
    For: AllDays,            !- Field 2
    Until: 24:00,24;         !- Field 3

  Schedule:Compact,
    Control type schedule: Always 4,  !- Name
    Any Number,              !- Schedule Type Limits Name
    Through: 12/31,          !- Field 1
    For: AllDays,            !- Field 2
    Until: 24:00,4;          !- Field 3

  Schedule:Compact,
    Heating high water temperature schedule: Always 50.00,  !- Name
    Any Number,              !- Schedule Type Limits Name
    Through: 12/31,          !- Field 1
    For: AllDays,            !- Field 2
    Until: 24:00,50;         !- Field 3

  Schedule:Compact,
    Heating low water temperature schedule: Always 30.00,  !- Name
    Any Number,              !- Schedule Type Limits Name
    Through: 12/31,          !- Field 1
    For: AllDays,            !- Field 2
    Until: 24:00,30;         !- Field 3

  Schedule:Compact,
    Heating low control temperature schedule: Always 15.00,  !- Name
    Any Number,              !- Schedule Type Limits Name
    Through: 12/31,          !- Field 1
    For: AllDays,            !- Field 2
    Until: 24:00,15;         !- Field 3

  Schedule:Compact,
    Heating high control temperature schedule: Always 21.00,  !- Name
    Any Number,              !- Schedule Type Limits Name
    Through: 12/31,          !- Field 1
    For: AllDays,            !- Field 2
    Until: 24:00,21;         !- Field 3

  Schedule:Compact,
    Cooling high water temperature schedule: Always 15.00,  !- Name
    Any Number,              !- Schedule Type Limits Name
    Through: 12/31,          !- Field 1
    For: AllDays,            !- Field 2
    Until: 24:00,15;         !- Field 3

  Schedule:Compact,
    Cooling low water temperature schedule: Always 10.00,  !- Name
    Any Number,              !- Schedule Type Limits Name
    Through: 12/31,          !- Field 1
    For: AllDays,            !- Field 2
    Until: 24:00,10;         !- Field 3

  Schedule:Compact,
    Cooling low control temperature schedule: Always 22.00,  !- Name
    Any Number,              !- Schedule Type Limits Name
    Through: 12/31,          !- Field 1
    For: AllDays,            !- Field 2
    Until: 24:00,22;         !- Field 3

  Schedule:Compact,
    Cooling high control temperature schedule: Always 26.00,  !- Name
    Any Number,              !- Schedule Type Limits Name
    Through: 12/31,          !- Field 1
    For: AllDays,            !- Field 2
    Until: 24:00,26;         !- Field 3

  Schedule:Compact,
    Min outdoor air schedule: Always 1.00,  !- Name
    Any Number,              !- Schedule Type Limits Name
    Through: 12/31,          !- Field 1
    For: AllDays,            !- Field 2
    Until: 24:00,1;          !- Field 3

  Schedule:Compact,
    Office_Circulation_Occ,  !- Name
    Fraction,                !- Schedule Type Limits Name
    Through: 31 Dec,         !- Field 1
    For: Weekdays SummerDesignDay, !- Field 2
    Until: 07:00,0,          !- Field 3
    Until: 08:00,0.25,       !- Field 5
    Until: 09:00,0.5,        !- Field 7
    Until: 12:00,1,          !- Field 9
    Until: 14:00,0.75,       !- Field 11
    Until: 17:00,1,          !- Field 13
    Until: 18:00,0.5,        !- Field 15
    Until: 19:00,0.25,       !- Field 17
    Until: 24:00,0,          !- Field 19
    For: Weekends,           !- Field 21
    Until: 24:00,0,          !- Field 22
    For: Holidays,           !- Field 24
    Until: 24:00,0,          !- Field 25
    For: WinterDesignDay AllOtherDays, !- Field 27
    Until: 24:00,0;          !- Field 28

  Schedule:Compact,
    Office_OpenOff_Occ,      !- Name
    Fraction,                !- Schedule Type Limits Name
    Through: 31 Dec,         !- Field 1
    For: Weekdays SummerDesignDay, !- Field 2
    Until: 07:00,0,          !- Field 3
    Until: 08:00,0.25,       !- Field 5
    Until: 09:00,0.5,        !- Field 7
    Until: 12:00,1,          !- Field 9
    Until: 14:00,0.75,       !- Field 11
    Until: 17:00,1,          !- Field 13
    Until: 18:00,0.5,        !- Field 15
    Until: 19:00,0.25,       !- Field 17
    Until: 24:00,0,          !- Field 19
    For: Weekends,           !- Field 21
    Until: 24:00,0,          !- Field 22
    For: Holidays,           !- Field 24
    Until: 24:00,0,          !- Field 25
    For: WinterDesignDay AllOtherDays, !- Field 27
    Until: 24:00,0;          !- Field 28

  Schedule:Compact,
    Office_EatDrink_Occ,     !- Name
    Fraction,                !- Schedule Type Limits Name
    Through: 31 Dec,         !- Field 1
    For: Weekdays SummerDesignDay, !- Field 2
    Until: 11:00,0,          !- Field 3
    Until: 12:00,0.25,       !- Field 5
    Until: 14:00,1,          !- Field 7
    Until: 15:00,0.75,       !- Field 9
    Until: 24:00,0,          !- Field 11
    For: Weekends,           !- Field 13
    Until: 24:00,0,          !- Field 14
    For: Holidays,           !- Field 16
    Until: 24:00,0,          !- Field 17
    For: WinterDesignDay AllOtherDays, !- Field 19
    Until: 24:00,0;          !- Field 20

  Schedule:Compact,
    iw_on,                   !- Name
    Fraction,                !- Schedule Type Limits Name
    Through: 31 Dec,         !- Field 1
    For: Weekdays SummerDesignDay, !- Field 2
    Until: 24:00,1,          !- Field 3
    For: Weekends,           !- Field 5
    Until: 24:00,1,          !- Field 6
    For: Holidays,           !- Field 8
    Until: 24:00,1,          !- Field 9
    For: WinterDesignDay AllOtherDays, !- Field 11
    Until: 24:00,0;          !- Field 12

  Schedule:Compact,
    iw_circulation_occ,      !- Name
    Fraction,                !- Schedule Type Limits Name
    Through: 31 Dec,         !- Field 1
    For: Weekdays SummerDesignDay, !- Field 2
    Until: 07:00,0,          !- Field 3
    Until: 08:00,0.25,       !- Field 5
    Until: 09:00,0.5,        !- Field 7
    Until: 12:00,1,          !- Field 9
    Until: 14:00,0.75,       !- Field 11
    Until: 17:00,1,          !- Field 13
    Until: 18:00,0.5,        !- Field 15
    Until: 19:00,0.25,       !- Field 17
    Until: 24:00,0,          !- Field 19
    For: Weekends,           !- Field 21
    Until: 24:00,0,          !- Field 22
    For: Holidays,           !- Field 24
    Until: 24:00,0,          !- Field 25
    For: WinterDesignDay AllOtherDays, !- Field 27
    Until: 24:00,0;          !- Field 28

  Schedule:Compact,
    iw_classroom_occ,        !- Name
    Fraction,                !- Schedule Type Limits Name
    Through: 15 Jan,         !- Field 1
    For: AllDays,            !- Field 2
    Until: 24:00,0,          !- Field 3
    Through: 12 Mar,         !- Field 5
    For: Weekdays SummerDesignDay, !- Field 6
    Until: 07:00,0,          !- Field 7
    Until: 08:00,0.1,        !- Field 9
    Until: 09:00,0.25,       !- Field 11
    Until: 10:00,0.75,       !- Field 13
    Until: 12:00,1,          !- Field 15
    Until: 14:00,0.25,       !- Field 17
    Until: 16:00,1,          !- Field 19
    Until: 18:00,0.5,        !- Field 21
    Until: 24:00,0,          !- Field 23
    For: Weekends,           !- Field 25
    Until: 24:00,0,          !- Field 26
    For: Holidays,           !- Field 28
    Until: 24:00,0,          !- Field 29
    For: WinterDesignDay AllOtherDays, !- Field 31
    Until: 24:00,0,          !- Field 32
    Through: 16 Mar,         !- Field 34
    For: AllDays,            !- Field 35
    Until: 24:00,0,          !- Field 36
    Through: 4 May,          !- Field 38
    For: Weekdays SummerDesignDay, !- Field 39
    Until: 07:00,0,          !- Field 40
    Until: 08:00,0.1,        !- Field 42
    Until: 09:00,0.25,       !- Field 44
    Until: 10:00,0.75,       !- Field 46
    Until: 12:00,1,          !- Field 48
    Until: 14:00,0.25,       !- Field 50
    Until: 16:00,1,          !- Field 52
    Until: 18:00,0.5,        !- Field 54
    Until: 24:00,0,          !- Field 56
    For: Weekends,           !- Field 58
    Until: 24:00,0,          !- Field 59
    For: Holidays,           !- Field 61
    Until: 24:00,0,          !- Field 62
    For: WinterDesignDay AllOtherDays, !- Field 64
    Until: 24:00,0,          !- Field 65
    Through: 28 Aug,         !- Field 67
    For: Weekdays SummerDesignDay, !- Field 68
    Until: 10:00,0,          !- Field 69
    Until: 16:00,0.1,        !- Field 71
    Until: 24:00,0,          !- Field 73
    For: Weekends,           !- Field 75
    Until: 24:00,0,          !- Field 76
    For: Holidays,           !- Field 78
    Until: 24:00,0,          !- Field 79
    For: WinterDesignDay AllOtherDays, !- Field 81
    Until: 24:00,0,          !- Field 82
    Through: 8 Dec,          !- Field 84
    For: Weekdays SummerDesignDay, !- Field 85
    Until: 07:00,0,          !- Field 86
    Until: 08:00,0.1,        !- Field 88
    Until: 09:00,0.25,       !- Field 90
    Until: 10:00,0.75,       !- Field 92
    Until: 12:00,1,          !- Field 94
    Until: 14:00,0.25,       !- Field 96
    Until: 16:00,1,          !- Field 98
    Until: 18:00,0.5,        !- Field 100
    Until: 24:00,0,          !- Field 102
    For: Weekends,           !- Field 104
    Until: 24:00,0,          !- Field 105
    For: Holidays,           !- Field 107
    Until: 24:00,0,          !- Field 108
    For: WinterDesignDay AllOtherDays, !- Field 110
    Until: 24:00,0,          !- Field 111
    Through: 31 Dec,         !- Field 113
    For: AllDays,            !- Field 114
    Until: 24:00,0;          !- Field 115

  Schedule:Compact,
    iw_office_term_related_occ,  !- Name
    Fraction,                !- Schedule Type Limits Name
    Through: 15 Jan,         !- Field 1
    For: AllDays,            !- Field 2
    Until: 24:00,0.05,       !- Field 3
    Through: 1 Jun,          !- Field 5
    For: Weekdays SummerDesignDay, !- Field 6
    Until: 08:00,0.25,       !- Field 7
    Until: 09:00,0.75,       !- Field 9
    Until: 12:00,1,          !- Field 11
    Until: 13:00,0.75,       !- Field 13
    Until: 17:00,1,          !- Field 15
    Until: 18:00,0.5,        !- Field 17
    Until: 19:00,0.25,       !- Field 19
    Until: 24:00,0.05,       !- Field 21
    For: Weekends,           !- Field 23
    Until: 24:00,0.05,       !- Field 24
    For: Holidays,           !- Field 26
    Until: 24:00,0.05,       !- Field 27
    For: WinterDesignDay AllOtherDays, !- Field 29
    Until: 24:00,0.05,       !- Field 30
    Through: 1 Sep,          !- Field 32
    For: AllDays,            !- Field 33
    Until: 24:00,0.05,       !- Field 34
    Through: 20 Dec,         !- Field 36
    For: Weekdays SummerDesignDay, !- Field 37
    Until: 08:00,0.25,       !- Field 38
    Until: 09:00,0.75,       !- Field 40
    Until: 12:00,1,          !- Field 42
    Until: 13:00,0.75,       !- Field 44
    Until: 17:00,1,          !- Field 46
    Until: 18:00,0.5,        !- Field 48
    Until: 19:00,0.25,       !- Field 50
    Until: 24:00,0.05,       !- Field 52
    For: Weekends,           !- Field 54
    Until: 24:00,0.05,       !- Field 55
    For: Holidays,           !- Field 57
    Until: 24:00,0.05,       !- Field 58
    For: WinterDesignDay AllOtherDays, !- Field 60
    Until: 24:00,0.05,       !- Field 61
    Through: 31 Dec,         !- Field 63
    For: AllDays,            !- Field 64
    Until: 24:00,0.05;       !- Field 65

    !Through: 15 Jan,         !- Field 1
    !For: AllDays,            !- Field 2
    !Until: 24:00,            !- Field 3
    !0.05,                       !- Field 4 was 0.2

  Schedule:Compact,
    iw_office_allyear_occ,   !- Name
    Fraction,                !- Schedule Type Limits Name
    Through: 20 Dec,         !- Field 1
    For: Weekdays SummerDesignDay, !- Field 2
    Until: 08:00,0.2,        !- Field 3
    Until: 09:00,0.75,       !- Field 5
    Until: 12:00,1,          !- Field 7
    Until: 13:00,0.75,       !- Field 9
    Until: 17:00,1,          !- Field 11
    Until: 18:00,0.2,        !- Field 13
    Until: 19:00,0.2,        !- Field 15
    Until: 24:00,0.2,        !- Field 17
    For: Weekends Holidays,  !- Field 19
    Until: 08:00,0.2,        !- Field 20
    Until: 09:00,0.3,        !- Field 22
    Until: 12:00,0.5,        !- Field 24
    Until: 13:00,0.3,        !- Field 26
    Until: 17:00,0.5,        !- Field 28
    Until: 18:00,0.2,        !- Field 30
    Until: 19:00,0.2,        !- Field 32
    Until: 24:00,0.2,        !- Field 34
    For: WinterDesignDay AllOtherDays, !- Field 36
    Until: 24:00,0.4,        !- Field 37
    Through: 31 Dec,         !- Field 39
    For: AllDays,            !- Field 40
    Until: 24:00,0.2;        !- Field 41

  Schedule:Compact,
    iw_off,                  !- Name
    Fraction,                !- Schedule Type Limits Name
    Through: 31 Dec,         !- Field 1
    For: SummerDesignDay,    !- Field 2
    Until: 24:00,1,          !- Field 3
    For: Weekdays,           !- Field 5
    Until: 24:00,0,          !- Field 6
    For: Weekends,           !- Field 8
    Until: 24:00,0,          !- Field 9
    For: Holidays,           !- Field 11
    Until: 24:00,0,          !- Field 12
    For: WinterDesignDay AllOtherDays, !- Field 14
    Until: 24:00,0;          !- Field 15

  Schedule:Compact,
    iw_office_phd_light,     !- Name
    Fraction,                !- Schedule Type Limits Name
    Through: 15 Jan,         !- Field 1
    For: AllDays,            !- Field 2
    Until: 24:00,0,          !- Field 3
    Through: 1 Jun,          !- Field 5
    For: SummerDesignDay,    !- Field 6
    Until: 24:00,1,          !- Field 7
    For: Weekdays,           !- Field 9
    Until: 17:30,0,          !- Field 10
    Until: 22:00,1,          !- Field 12
    Until: 24:00,0,          !- Field 14
    For: Weekends,           !- Field 16
    Until: 24:00,0,          !- Field 17
    For: Holidays,           !- Field 19
    Until: 24:00,0,          !- Field 20
    For: WinterDesignDay AllOtherDays, !- Field 22
    Until: 24:00,0,          !- Field 23
    Through: 1 Sep,          !- Field 25
    For: AllDays,            !- Field 26
    Until: 24:00,0,          !- Field 27
    Through: 20 Dec,         !- Field 29
    For: SummerDesignDay,    !- Field 30
    Until: 24:00,1,          !- Field 31
    For: Weekdays,           !- Field 33
    Until: 17:30,0,          !- Field 34
    Until: 22:00,1,          !- Field 36
    Until: 24:00,0,          !- Field 38
    For: Weekends,           !- Field 40
    Until: 24:00,0,          !- Field 41
    For: Holidays,           !- Field 43
    Until: 24:00,0,          !- Field 44
    For: WinterDesignDay AllOtherDays, !- Field 46
    Until: 24:00,0,          !- Field 47
    Through: 31 Dec,         !- Field 49
    For: AllDays,            !- Field 50
    Until: 24:00,0;          !- Field 51

  Schedule:Compact,
    iw_semco_sp_stpt,        !- Name
    Any Number,              !- Schedule Type Limits Name
    Through: 12/31,          !- Field 1
    For: AllDays,            !- Field 2
    Until: 24:00,12.8;       !- Field 3

  Schedule:Compact,
    Activity Schedule Walking,  !- Name
    Any Number,              !- Schedule Type Limits Name
    Through: 12/31,          !- Field 1
    For: AllDays,            !- Field 2
    Until: 24:00,126;        !- Field 3

  Schedule:Compact,
    Clothing Schedule Normal,!- Name
    Any Number,              !- Schedule Type Limits Name
    Through: 4/1,            !- Field 1
    For: AllDays,            !- Field 2
    Until: 24:00,1,          !- Field 3
    Through: 9/30,           !- Field 5
    For: AllDays,            !- Field 6
    Until: 24:00,.5,         !- Field 7
    Through: 12/31,          !- Field 9
    For: AllDays,            !- Field 10